data/case136ma.m
function mpc = case136ma
%CASE136MA  Power flow data for 135 bus distribution system from Mantovani, et al
%   Please see CASEFORMAT for details on the case file format.
%
%   Data from ...
%       Mantovani JRS, Casari F, Romero RA (2000) Reconfiguração de sistemas
%       de distribuição radiais utilizando o critério de queda de tensão. Rev
%       Bras Controle Automação - SBA 11:150-159.

%% MATPOWER Case Format : Version 2
function mpc = case136ma
mpc.version = '2';

%%-----  Power Flow Data  -----%%
%% system MVA base
mpc.baseMVA = 10;
%% bus data
%    bus_i    type    Pd    Qd    Gs    Bs    area    Vm    Va    baseKV    zone    Vmax    Vmin
mpc.bus = [
    1   3   0.0 0.0 0.0 0.0 1   1.0 0.0 13.8    1   1.05    0.95
    2   1   0.0 0.0 0.0 0.0 1   1.0 0.0 13.8    1   1.05    0.95
    3   1   0.04778 0.019010000000000003    0.0 0.0 1   1.0 0.0 13.8    1   1.05    0.95
    4   1   0.042550000000000004    0.01693 0.0 0.0 1   1.0 0.0 13.8    1   1.05    0.95
    5   1   0.08702 0.03462 0.0 0.0 1   1.0 0.0 13.8    1   1.05    0.95
    6   1   0.31131 0.123855    0.0 0.0 1   1.0 0.0 13.8    1   1.05    0.95
    7   1   0.14886900000000003 0.059230000000000005    0.0 0.0 1   1.0 0.0 13.8    1   1.05    0.95
    8   1   0.23867200000000002 0.09495999999999999 0.0 0.0 1   1.0 0.0 13.8    1   1.05    0.95
    9   1   0.062299999999999994    0.024790000000000003    0.0 0.0 1   1.0 0.0 13.8    1   1.05    0.95
    10  1   0.124598    0.049569999999999996    0.0 0.0 1   1.0 0.0 13.8    1   1.05    0.95
    11  1   0.14017500000000002 0.05577 0.0 0.0 1   1.0 0.0 13.8    1   1.05    0.95
    12  1   0.116813    0.04647 0.0 0.0 1   1.0 0.0 13.8    1   1.05    0.95
    13  1   0.249203    0.09915 0.0 0.0 1   1.0 0.0 13.8    1   1.05    0.95
    14  1   0.291447    0.115952    0.0 0.0 1   1.0 0.0 13.8    1   1.05    0.95
    15  1   0.30372000000000005 0.12083499999999998 0.0 0.0 1   1.0 0.0 13.8    1   1.05    0.95
    16  1   0.21539599999999998 0.0857  0.0 0.0 1   1.0 0.0 13.8    1   1.05    0.95
    17  1   0.19858600000000004 0.07901 0.0 0.0 1   1.0 0.0 13.8    1   1.05    0.95
    18  1   0.0 0.0 0.0 0.0 1   1.0 0.0 13.8    1   1.05    0.95
    19  1   0.0 0.0 0.0 0.0 1   1.0 0.0 13.8    1   1.05    0.95
    20  1   0.0 0.0 0.0 0.0 1   1.0 0.0 13.8    1   1.05    0.95
    21  1   0.03013 0.014730000000000002    0.0 0.0 1   1.0 0.0 13.8    1   1.05    0.95
    22  1   0.230972    0.11291999999999999 0.0 0.0 1   1.0 0.0 13.8    1   1.05    0.95
    23  1   0.06026 0.029460000000000004    0.0 0.0 1   1.0 0.0 13.8    1   1.05    0.95
    24  1   0.230972    0.11291999999999999 0.0 0.0 1   1.0 0.0 13.8    1   1.05    0.95
    25  1   0.120507    0.05892000000000001 0.0 0.0 1   1.0 0.0 13.8    1   1.05    0.95
    26  1   0.0 0.0 0.0 0.0 1   1.0 0.0 13.8    1   1.05    0.95
    27  1   0.05698 0.02786 0.0 0.0 1   1.0 0.0 13.8    1   1.05    0.95
    28  1   0.3646650000000001  0.178281    0.0 0.0 1   1.0 0.0 13.8    1   1.05    0.95
    29  1   0.0 0.0 0.0 0.0 1   1.0 0.0 13.8    1   1.05    0.95
    30  1   0.12464700000000001 0.060939999999999994    0.0 0.0 1   1.0 0.0 13.8    1   1.05    0.95
    31  1   0.05698 0.02786 0.0 0.0 1   1.0 0.0 13.8    1   1.05    0.95
    32  1   0.0 0.0 0.0 0.0 1   1.0 0.0 13.8    1   1.05    0.95
    33  1   0.08547 0.04179000000000001 0.0 0.0 1   1.0 0.0 13.8    1   1.05    0.95
    34  1   0.0 0.0 0.0 0.0 1   1.0 0.0 13.8    1   1.05    0.95
    35  1   0.39673500000000006 0.19396 0.0 0.0 1   1.0 0.0 13.8    1   1.05    0.95
    36  1   0.0 0.0 0.0 0.0 1   1.0 0.0 13.8    1   1.05    0.95
    37  1   0.18115199999999998 0.08856 0.0 0.0 1   1.0 0.0 13.8    1   1.05    0.95
    38  1   0.24217199999999997 0.118395    0.0 0.0 1   1.0 0.0 13.8    1   1.05    0.95
    39  1   0.07531999999999998 0.03682 0.0 0.0 1   1.0 0.0 13.8    1   1.05    0.95
    40  1   0.0 0.0 0.0 0.0 1   1.0 0.0 13.8    1   1.05    0.95
    41  1   0.00125 0.0005300000000000001   0.0 0.0 1   1.0 0.0 13.8    1   1.05    0.95
    42  1   0.0062699999999999995   0.00266 0.0 0.0 1   1.0 0.0 13.8    1   1.05    0.95
    43  1   0.0 0.0 0.0 0.0 1   1.0 0.0 13.8    1   1.05    0.95
    44  1   0.11788 0.04997 0.0 0.0 1   1.0 0.0 13.8    1   1.05    0.95
    45  1   0.06267 0.02657 0.0 0.0 1   1.0 0.0 13.8    1   1.05    0.95
    46  1   0.17228500000000002 0.07303 0.0 0.0 1   1.0 0.0 13.8    1   1.05    0.95
    47  1   0.45855599999999996 0.194388    0.0 0.0 1   1.0 0.0 13.8    1   1.05    0.95
    48  1   0.262962    0.11147299999999999 0.0 0.0 1   1.0 0.0 13.8    1   1.05    0.95
    49  1   0.235761    0.09994 0.0 0.0 1   1.0 0.0 13.8    1   1.05    0.95
    50  1   0.0 0.0 0.0 0.0 1   1.0 0.0 13.8    1   1.05    0.95
    51  1   0.109215    0.046299999999999994    0.0 0.0 1   1.0 0.0 13.8    1   1.05    0.95
    52  1   0.0 0.0 0.0 0.0 1   1.0 0.0 13.8    1   1.05    0.95
    53  1   0.07281000000000001 0.03087 0.0 0.0 1   1.0 0.0 13.8    1   1.05    0.95
    54  1   0.258473    0.10957 0.0 0.0 1   1.0 0.0 13.8    1   1.05    0.95
    55  1   0.06917 0.029320000000000002    0.0 0.0 1   1.0 0.0 13.8    1   1.05    0.95
    56  1   0.021840000000000002    0.00926 0.0 0.0 1   1.0 0.0 13.8    1   1.05    0.95
    57  1   0.0 0.0 0.0 0.0 1   1.0 0.0 13.8    1   1.05    0.95
    58  1   0.02053 0.0087  0.0 0.0 1   1.0 0.0 13.8    1   1.05    0.95
    59  1   0.15054800000000002 0.06382 0.0 0.0 1   1.0 0.0 13.8    1   1.05    0.95
    60  1   0.220687    0.09355000000000001 0.0 0.0 1   1.0 0.0 13.8    1   1.05    0.95
    61  1   0.09237999999999999 0.03915999999999999 0.0 0.0 1   1.0 0.0 13.8    1   1.05    0.95
    62  1   0.0 0.0 0.0 0.0 1   1.0 0.0 13.8    1   1.05    0.95
    63  1   0.226693    0.09609999999999999 0.0 0.0 1   1.0 0.0 13.8    1   1.05    0.95
    64  1   0.0 0.0 0.0 0.0 1   1.0 0.0 13.8    1   1.05    0.95
    65  1   0.29401600000000006 0.116974    0.0 0.0 1   1.0 0.0 13.8    1   1.05    0.95
    66  1   0.08302000000000001 0.03303 0.0 0.0 1   1.0 0.0 13.8    1   1.05    0.95
    67  1   0.08302000000000001 0.03303 0.0 0.0 1   1.0 0.0 13.8    1   1.05    0.95
    68  1   0.10376999999999999 0.04129 0.0 0.0 1   1.0 0.0 13.8    1   1.05    0.95
    69  1   0.17640799999999998 0.07018 0.0 0.0 1   1.0 0.0 13.8    1   1.05    0.95
    70  1   0.08302000000000001 0.03303 0.0 0.0 1   1.0 0.0 13.8    1   1.05    0.95
    71  1   0.21791699999999997 0.0867  0.0 0.0 1   1.0 0.0 13.8    1   1.05    0.95
    72  1   0.023289999999999998    0.00927 0.0 0.0 1   1.0 0.0 13.8    1   1.05    0.95
    73  1   0.0050799999999999994   0.00202 0.0 0.0 1   1.0 0.0 13.8    1   1.05    0.95
    74  1   0.07264000000000001 0.0289  0.0 0.0 1   1.0 0.0 13.8    1   1.05    0.95
    75  1   0.40599 0.16152300000000003 0.0 0.0 1   1.0 0.0 13.8    1   1.05    0.95
    76  1   0.0 0.0 0.0 0.0 1   1.0 0.0 13.8    1   1.05    0.95
    77  1   0.100182    0.04247 0.0 0.0 1   1.0 0.0 13.8    1   1.05    0.95
    78  1   0.142523    0.060419999999999995    0.0 0.0 1   1.0 0.0 13.8    1   1.05    0.95
    79  1   0.09604000000000001 0.040709999999999996    0.0 0.0 1   1.0 0.0 13.8    1   1.05    0.95
    80  1   0.300454    0.12736599999999998 0.0 0.0 1   1.0 0.0 13.8    1   1.05    0.95
    81  1   0.14123799999999997 0.05987 0.0 0.0 1   1.0 0.0 13.8    1   1.05    0.95
    82  1   0.27984699999999996 0.118631    0.0 0.0 1   1.0 0.0 13.8    1   1.05    0.95
    83  1   0.08731 0.037009999999999994    0.0 0.0 1   1.0 0.0 13.8    1   1.05    0.95
    84  1   0.24384899999999998 0.103371    0.0 0.0 1   1.0 0.0 13.8    1   1.05    0.95
    85  1   0.24774999999999997 0.10502500000000001 0.0 0.0 1   1.0 0.0 13.8    1   1.05    0.95
    86  1   0.0 0.0 0.0 0.0 1   1.0 0.0 13.8    1   1.05    0.95
    87  1   0.08987999999999999 0.0381  0.0 0.0 1   1.0 0.0 13.8    1   1.05    0.95
    88  1   1.13728 0.482108    0.0 0.0 1   1.0 0.0 13.8    1   1.05    0.95
    89  1   0.45833899999999994 0.19429600000000002 0.0 0.0 1   1.0 0.0 13.8    1   1.05    0.95
    90  1   0.38519699999999996 0.16329 0.0 0.0 1   1.0 0.0 13.8    1   1.05    0.95
    91  1   0.0 0.0 0.0 0.0 1   1.0 0.0 13.8    1   1.05    0.95
    92  1   0.07961000000000001 0.03375 0.0 0.0 1   1.0 0.0 13.8    1   1.05    0.95
    93  1   0.08731 0.037009999999999994    0.0 0.0 1   1.0 0.0 13.8    1   1.05    0.95
    94  1   0.0 0.0 0.0 0.0 1   1.0 0.0 13.8    1   1.05    0.95
    95  1   0.07400000000000001 0.03137 0.0 0.0 1   1.0 0.0 13.8    1   1.05    0.95
    96  1   0.23205000000000003 0.09837 0.0 0.0 1   1.0 0.0 13.8    1   1.05    0.95
    97  1   0.141819    0.06012 0.0 0.0 1   1.0 0.0 13.8    1   1.05    0.95
    98  1   0.0 0.0 0.0 0.0 1   1.0 0.0 13.8    1   1.05    0.95
    99  1   0.07645 0.032409999999999994    0.0 0.0 1   1.0 0.0 13.8    1   1.05    0.95
    100 1   0.0 0.0 0.0 0.0 1   1.0 0.0 13.8    1   1.05    0.95
    101 1   0.05131999999999999 0.02176 0.0 0.0 1   1.0 0.0 13.8    1   1.05    0.95
    102 1   0.05987 0.02538 0.0 0.0 1   1.0 0.0 13.8    1   1.05    0.95
    103 1   0.00907 0.00384 0.0 0.0 1   1.0 0.0 13.8    1   1.05    0.95
    104 1   0.00209 0.00089 0.0 0.0 1   1.0 0.0 13.8    1   1.05    0.95
    105 1   0.016735    0.00709 0.0 0.0 1   1.0 0.0 13.8    1   1.05    0.95
    106 1   1.506522    0.638634    0.0 0.0 1   1.0 0.0 13.8    1   1.05    0.95
    107 1   0.31302300000000005 0.13269399999999998 0.0 0.0 1   1.0 0.0 13.8    1   1.05    0.95
    108 1   0.07983000000000001 0.03384 0.0 0.0 1   1.0 0.0 13.8    1   1.05    0.95
    109 1   0.05131999999999999 0.02176 0.0 0.0 1   1.0 0.0 13.8    1   1.05    0.95
    110 1   0.0 0.0 0.0 0.0 1   1.0 0.0 13.8    1   1.05    0.95
    111 1   0.202435    0.08582 0.0 0.0 1   1.0 0.0 13.8    1   1.05    0.95
    112 1   0.06082 0.025780000000000004    0.0 0.0 1   1.0 0.0 13.8    1   1.05    0.95
    113 1   0.045619999999999994    0.01934 0.0 0.0 1   1.0 0.0 13.8    1   1.05    0.95
    114 1   0.0 0.0 0.0 0.0 1   1.0 0.0 13.8    1   1.05    0.95
    115 1   0.15707 0.06658 0.0 0.0 1   1.0 0.0 13.8    1   1.05    0.95
    116 1   0.0 0.0 0.0 0.0 1   1.0 0.0 13.8    1   1.05    0.95
    117 1   0.250148    0.10604099999999998 0.0 0.0 1   1.0 0.0 13.8    1   1.05    0.95
    118 1   0.0 0.0 0.0 0.0 1   1.0 0.0 13.8    1   1.05    0.95
    119 1   0.06981 0.02959 0.0 0.0 1   1.0 0.0 13.8    1   1.05    0.95
    120 1   0.03207 0.0136  0.0 0.0 1   1.0 0.0 13.8    1   1.05    0.95
    121 1   0.061079999999999995    0.025890000000000003    0.0 0.0 1   1.0 0.0 13.8    1   1.05    0.95
    122 1   0.0 0.0 0.0 0.0 1   1.0 0.0 13.8    1   1.05    0.95
    123 1   0.09462 0.04625999999999999 0.0 0.0 1   1.0 0.0 13.8    1   1.05    0.95
    124 1   0.04986 0.024379999999999995    0.0 0.0 1   1.0 0.0 13.8    1   1.05    0.95
    125 1   0.123164    0.06021 0.0 0.0 1   1.0 0.0 13.8    1   1.05    0.95
    126 1   0.07834999999999998 0.038299999999999994    0.0 0.0 1   1.0 0.0 13.8    1   1.05    0.95
    127 1   0.145475    0.07112 0.0 0.0 1   1.0 0.0 13.8    1   1.05    0.95
    128 1   0.02137 0.01045 0.0 0.0 1   1.0 0.0 13.8    1   1.05    0.95
    129 1   0.07479000000000001 0.03656 0.0 0.0 1   1.0 0.0 13.8    1   1.05    0.95
    130 1   0.227926    0.11143100000000002 0.0 0.0 1   1.0 0.0 13.8    1   1.05    0.95
    131 1   0.03561 0.017410000000000002    0.0 0.0 1   1.0 0.0 13.8    1   1.05    0.95
    132 1   0.24929499999999996 0.12187699999999999 0.0 0.0 1   1.0 0.0 13.8    1   1.05    0.95
    133 1   0.31672199999999995 0.154842    0.0 0.0 1   1.0 0.0 13.8    1   1.05    0.95
    134 1   0.33381700000000003 0.163199    0.0 0.0 1   1.0 0.0 13.8    1   1.05    0.95
    135 1   0.24929499999999996 0.12187699999999999 0.0 0.0 1   1.0 0.0 13.8    1   1.05    0.95
    136 1   0.0 0.0 0.0 0.0 1   1.0 0.0 13.8    1   1.05    0.95
];

%% generator data
%    bus    Pg    Qg    Qmax    Qmin    Vg    mBase    status    Pmax    Pmin    Pc1    Pc2    Qc1min    Qc1max    Qc2min    Qc2max    ramp_agc    ramp_10    ramp_30    ramp_q    apf
mpc.gen = [
    1   0.0 0.0 10.0    -10.0   1.0 100.0   1   10.0    0.0 0.0 0.0 0.0 0.0 0.0 0.0 0.0 0.0 0.0 0.0 0.0
];

%% branch data
%    f_bus    t_bus    r    x    b    rateA    rateB    rateC    ratio    angle    status    angmin    angmax
mpc.branch = [
    1   2   0.017435937828187354    0.040250472589792065    0.0 100.0   100.0   100.0   0   0   1   -60.0001403060998   60.0001403060998
    2   3   9.87187565637471e-5 0.000227368199957992    0.0 100.0   100.0   100.0   0   0   1   -60.0001403060998   60.0001403060998
    3   4   0.011722327242176013    0.027061016593152697    0.0 100.0   100.0   100.0   0   0   1   -60.0001403060998   60.0001403060998
    4   5   0.005221067002730519    0.012052614996849401    0.0 100.0   100.0   100.0   0   0   1   -60.0001403060998   60.0001403060998
    5   6   0.008176328502415458    0.018874711195127073    0.0 100.0   100.0   100.0   0   0   1   -60.0001403060998   60.0001403060998
    6   7   0.008570153329132534    0.019784183994959043    0.0 100.0   100.0   100.0   0   0   1   -60.0001403060998   60.0001403060998
    7   8   0.0060092417559336276   0.013871560596513339    0.0 100.0   100.0   100.0   0   0   1   -60.0001403060998   60.0001403060998
    7   9   0.002979941188825877    0.002975215290905272    0.0 100.0   100.0   100.0   0   0   1   -60.0001403060998   60.0001403060998
    9   10  0.027370300357067844    0.014397185465238395    0.0 100.0   100.0   100.0   0   0   1   -60.0001403060998   60.0001403060998
    9   11  0.005711510186935518    0.005702583490863264    0.0 100.0   100.0   100.0   0   0   1   -60.0001403060998   60.0001403060998
    11  12  0.020900546103759715    0.0109940138626339  0.0 100.0   100.0   100.0   0   0   1   -60.0001403060998   60.0001403060998
    11  13  0.04817475320310859 0.016524364629279566    0.0 100.0   100.0   100.0   0   0   1   -60.0001403060998   60.0001403060998
    11  14  0.00620825456836799 0.00619880277252678 0.0 100.0   100.0   100.0   0   0   1   -60.0001403060998   60.0001403060998
    14  15  0.02637471119512707 0.013873660995589161    0.0 100.0   100.0   100.0   0   0   1   -60.0001403060998   60.0001403060998
    14  16  0.002979941188825877    0.002975215290905272    0.0 100.0   100.0   100.0   0   0   1   -60.0001403060998   60.0001403060998
    16  17  0.01542690611216131 0.008114891829447595    0.0 100.0   100.0   100.0   0   0   1   -60.0001403060998   60.0001403060998
    1   18  0.017435937828187354    0.040250472589792065    0.0 100.0   100.0   100.0   0   0   1   -60.0001403060998   60.0001403060998
    18  19  9.87187565637471e-5 0.000227368199957992    0.0 100.0   100.0   100.0   0   0   1   -60.0001403060998   60.0001403060998
    19  20  0.011722327242176013    0.027061016593152697    0.0 100.0   100.0   100.0   0   0   1   -60.0001403060998   60.0001403060998
    20  21  0.005713610586011342    0.013189455996639362    0.0 100.0   100.0   100.0   0   0   1   -60.0001403060998   60.0001403060998
    21  22  0.03732304137786179 0.01963243016173073 0.0 100.0   100.0   100.0   0   0   1   -60.0001403060998   60.0001403060998
    21  23  0.009555240495694181    0.02205839109430792 0.0 100.0   100.0   100.0   0   0   1   -60.0001403060998   60.0001403060998
    23  24  0.015924175593362736    0.008376391514387732    0.0 100.0   100.0   100.0   0   0   1   -60.0001403060998   60.0001403060998
    23  25  0.0012807183364839318   0.0029563116992228525   0.0 100.0   100.0   100.0   0   0   1   -60.0001403060998   60.0001403060998
    25  26  0.0023639991598403695   0.005457886998529721    0.0 100.0   100.0   100.0   0   0   1   -60.0001403060998   60.0001403060998
    26  27  0.0009850871665616466   0.0022742070993488762   0.0 100.0   100.0   100.0   0   0   1   -60.0001403060998   60.0001403060998
    27  28  0.00620825456836799 0.00619880277252678 0.0 100.0   100.0   100.0   0   0   1   -60.0001403060998   60.0001403060998
    28  29  0.0012418609535811804   0.001239760554505356    0.0 100.0   100.0   100.0   0   0   1   -60.0001403060998   60.0001403060998
    29  30  0.00995274102079395 0.0052352446964923334   0.0 100.0   100.0   100.0   0   0   1   -60.0001403060998   60.0001403060998
    30  31  0.020900546103759715    0.0109940138626339  0.0 100.0   100.0   100.0   0   0   1   -60.0001403060998   60.0001403060998
    29  32  0.002979941188825877    0.002975215290905272    0.0 100.0   100.0   100.0   0   0   1   -60.0001403060998   60.0001403060998
    32  33  0.004976370510396975    0.0026176223482461667   0.0 100.0   100.0   100.0   0   0   1   -60.0001403060998   60.0001403060998
    33  34  0.021896135265700483    0.011517538332283134    0.0 100.0   100.0   100.0   0   0   1   -60.0001403060998   60.0001403060998
    34  35  0.005971434572568788    0.0031411468178954  0.0 100.0   100.0   100.0   0   0   1   -60.0001403060998   60.0001403060998
    32  36  0.003972904851921866    0.003967128754463348    0.0 100.0   100.0   100.0   0   0   1   -60.0001403060998   60.0001403060998
    36  37  0.019407687460617516    0.01020898970804453 0.0 100.0   100.0   100.0   0   0   1   -60.0001403060998   60.0001403060998
    37  38  0.013934047469019113    0.007329342575089267    0.0 100.0   100.0   100.0   0   0   1   -60.0001403060998   60.0001403060998
    36  39  0.002979941188825877    0.002975215290905272    0.0 100.0   100.0   100.0   0   0   1   -60.0001403060998   60.0001403060998
    1   40  0.017435937828187354    0.040250472589792065    0.0 100.0   100.0   100.0   0   0   1   -60.0001403060998   60.0001403060998
    40  41  0.0062061541692921655   0.014326296996429322    0.0 100.0   100.0   100.0   0   0   1   -60.0001403060998   60.0001403060998
    41  42  0.15558076034446544 0.053364839319470704    0.0 100.0   100.0   100.0   0   0   1   -60.0001403060998   60.0001403060998
    41  43  9.87187565637471e-5 0.000227368199957992    0.0 100.0   100.0   100.0   0   0   1   -60.0001403060998   60.0001403060998
    43  44  0.0036447174963243015   0.008414198697752572    0.0 100.0   100.0   100.0   0   0   1   -60.0001403060998   60.0001403060998
    44  45  0.042796681369460195    0.02251207729468599 0.0 100.0   100.0   100.0   0   0   1   -60.0001403060998   60.0001403060998
    44  46  0.0033490863264020163   0.007731568998109641    0.0 100.0   100.0   100.0   0   0   1   -60.0001403060998   60.0001403060998
    46  47  0.006895610165931526    0.01591839949590422 0.0 100.0   100.0   100.0   0   0   1   -60.0001403060998   60.0001403060998
    47  48  0.003250892669607225    0.007504200798151649    0.0 100.0   100.0   100.0   0   0   1   -60.0001403060998   60.0001403060998
    48  49  0.0060092417559336276   0.013871560596513339    0.0 100.0   100.0   100.0   0   0   1   -60.0001403060998   60.0001403060998
    49  50  0.014899180844360429    0.014876601554295316    0.0 100.0   100.0   100.0   0   0   1   -60.0001403060998   60.0001403060998
    50  51  0.014899180844360429    0.014876601554295316    0.0 100.0   100.0   100.0   0   0   1   -60.0001403060998   60.0001403060998
    49  52  0.0023639991598403695   0.005457886998529721    0.0 100.0   100.0   100.0   0   0   1   -60.0001403060998   60.0001403060998
    52  53  0.0013789119932787228   0.0031836798991808444   0.0 100.0   100.0   100.0   0   0   1   -60.0001403060998   60.0001403060998
    53  54  0.0031521739130434784   0.007276832598193657    0.0 100.0   100.0   100.0   0   0   1   -60.0001403060998   60.0001403060998
    54  55  0.0015763495064062172   0.0036384162990968287   0.0 100.0   100.0   100.0   0   0   1   -60.0001403060998   60.0001403060998
    55  56  0.0010838059231253938   0.002501575299306868    0.0 100.0   100.0   100.0   0   0   1   -60.0001403060998   60.0001403060998
    53  57  0.005713610586011342    0.013189455996639362    0.0 100.0   100.0   100.0   0   0   1   -60.0001403060998   60.0001403060998
    57  58  0.01343625288804873 0.007067842890149128    0.0 100.0   100.0   100.0   0   0   1   -60.0001403060998   60.0001403060998
    58  59  0.021896135265700483    0.011517538332283134    0.0 100.0   100.0   100.0   0   0   1   -60.0001403060998   60.0001403060998
    59  60  0.02637471119512707 0.013873660995589161    0.0 100.0   100.0   100.0   0   0   1   -60.0001403060998   60.0001403060998
    60  61  0.01741755933627389 0.009161940768746062    0.0 100.0   100.0   100.0   0   0   1   -60.0001403060998   60.0001403060998
    61  62  0.010947805082965764    0.005758769166141567    0.0 100.0   100.0   100.0   0   0   1   -60.0001403060998   60.0001403060998
    48  63  0.007289434992648603    0.01682787229573619 0.0 100.0   100.0   100.0   0   0   1   -60.0001403060998   60.0001403060998
    1   64  0.00039382482671707623  0.000909472799831968    0.0 100.0   100.0   100.0   0   0   1   -60.0001403060998   60.0001403060998
    64  65  0.01418504515858013 0.032746271791640406    0.0 100.0   100.0   100.0   0   0   1   -60.0001403060998   60.0001403060998
    65  66  0.02009556815795001 0.04639046418819576 0.0 100.0   100.0   100.0   0   0   1   -60.0001403060998   60.0001403060998
    66  67  0.017337744171392562    0.040023104389834065    0.0 100.0   100.0   100.0   0   0   1   -60.0001403060998   60.0001403060998
    67  68  0.017239025414828815    0.03979573618987608 0.0 100.0   100.0   100.0   0   0   1   -60.0001403060998   60.0001403060998
    68  69  0.008964503255618568    0.02069365679479101 0.0 100.0   100.0   100.0   0   0   1   -60.0001403060998   60.0001403060998
    69  70  0.029360428481411467    0.015444234404536862    0.0 100.0   100.0   100.0   0   0   1   -60.0001403060998   60.0001403060998
    69  71  0.003053980256248687    0.007049464398235665    0.0 100.0   100.0   100.0   0   0   1   -60.0001403060998   60.0001403060998
    71  72  0.03682524679689141 0.01937093047679059 0.0 100.0   100.0   100.0   0   0   1   -60.0001403060998   60.0001403060998
    72  73  0.05374501155219492 0.02827084646082756 0.0 100.0   100.0   100.0   0   0   1   -60.0001403060998   60.0001403060998
    71  74  0.003546523839529511    0.00818683049779458 0.0 100.0   100.0   100.0   0   0   1   -60.0001403060998   60.0001403060998
    74  75  0.06949800462087796 0.023837954211300146    0.0 100.0   100.0   100.0   0   0   1   -60.0001403060998   60.0001403060998
    1   76  0.0005912623398445704   0.001364209199747952    0.0 100.0   100.0   100.0   0   0   1   -60.0001403060998   60.0001403060998
    76  77  0.03831968073934047 0.0884604074774207  0.0 100.0   100.0   100.0   0   0   1   -60.0001403060998   60.0001403060998
    77  78  0.01182104599873976 0.02728838479311069 0.0 100.0   100.0   100.0   0   0   1   -60.0001403060998   60.0001403060998
    78  79  0.010934677588741861    0.025242070993488762    0.0 100.0   100.0   100.0   0   0   1   -60.0001403060998   60.0001403060998
    79  80  0.0024627179164041168   0.0056852551984877125   0.0 100.0   100.0   100.0   0   0   1   -60.0001403060998   60.0001403060998
    80  81  0.0325299306868305  0.032481096408317575    0.0 100.0   100.0   100.0   0   0   1   -60.0001403060998   60.0001403060998
    81  82  0.017879122033186305    0.017852341944969544    0.0 100.0   100.0   100.0   0   0   1   -60.0001403060998   60.0001403060998
    82  83  0.029858223062381853    0.015706259189245956    0.0 100.0   100.0   100.0   0   0   1   -60.0001403060998   60.0001403060998
    82  84  0.005711510186935518    0.005702583490863264    0.0 100.0   100.0   100.0   0   0   1   -60.0001403060998   60.0001403060998
    84  85  0.029858223062381853    0.015706259189245956    0.0 100.0   100.0   100.0   0   0   1   -60.0001403060998   60.0001403060998
    1   86  0.0005912623398445704   0.001364209199747952    0.0 100.0   100.0   100.0   0   0   1   -60.0001403060998   60.0001403060998
    86  87  0.02196754883427851 0.05071151018693552 0.0 100.0   100.0   100.0   0   0   1   -60.0001403060998   60.0001403060998
    87  88  0.005513022474270111    0.0071628859483301825   0.0 100.0   100.0   100.0   0   0   1   -60.0001403060998   60.0001403060998
    87  89  0.02305082965763495 0.05321256038647343 0.0 100.0   100.0   100.0   0   0   1   -60.0001403060998   60.0001403060998
    89  90  0.003948750262549885    0.0013542323041377863   0.0 100.0   100.0   100.0   0   0   1   -60.0001403060998   60.0001403060998
    90  91  0.004039067422810334    0.00932367149758454 0.0 100.0   100.0   100.0   0   0   1   -60.0001403060998   60.0001403060998
    91  92  0.017435937828187354    0.040250472589792065    0.0 100.0   100.0   100.0   0   0   1   -60.0001403060998   60.0001403060998
    92  93  0.00443289224952741 0.01023314429741651 0.0 100.0   100.0   100.0   0   0   1   -60.0001403060998   60.0001403060998
    93  94  0.006994328922495275    0.016145767695862213    0.0 100.0   100.0   100.0   0   0   1   -60.0001403060998   60.0001403060998
    94  95  0.015395925225792901    0.015372820835958832    0.0 100.0   100.0   100.0   0   0   1   -60.0001403060998   60.0001403060998
    95  96  0.011422495274102079    0.011405692081495482    0.0 100.0   100.0   100.0   0   0   1   -60.0001403060998   60.0001403060998
    96  97  0.013905692081495483    0.013885213190506196    0.0 100.0   100.0   100.0   0   0   1   -60.0001403060998   60.0001403060998
    94  98  0.005417979416089056    0.012507351396765386    0.0 100.0   100.0   100.0   0   0   1   -60.0001403060998   60.0001403060998
    98  99  0.007092522579290065    0.016373135895820203    0.0 100.0   100.0   100.0   0   0   1   -60.0001403060998   60.0001403060998
    1   100 0.0004925435832808233   0.00113684099978996 0.0 100.0   100.0   100.0   0   0   1   -60.0001403060998   60.0001403060998
    100 101 0.00886578449905482 0.02046628859483302 0.0 100.0   100.0   100.0   0   0   1   -60.0001403060998   60.0001403060998
    101 102 0.0062061541692921655   0.014326296996429322    0.0 100.0   100.0   100.0   0   0   1   -60.0001403060998   60.0001403060998
    102 103 0.12004200798151649 0.04117517328292375 0.0 100.0   100.0   100.0   0   0   1   -60.0001403060998   60.0001403060998
    102 104 0.023937723167401805    0.05525939928586431 0.0 100.0   100.0   100.0   0   0   1   -60.0001403060998   60.0001403060998
    104 105 0.036546943919344675    0.0843672547784079  0.0 100.0   100.0   100.0   0   0   1   -60.0001403060998   60.0001403060998
    105 106 0.024035916824196597    0.0554867674858223  0.0 100.0   100.0   100.0   0   0   1   -60.0001403060998   60.0001403060998
    106 107 0.010658475110270951    0.01384845620667927 0.0 100.0   100.0   100.0   0   0   1   -60.0001403060998   60.0001403060998
    107 108 0.011209829867674858    0.014564692291535392    0.0 100.0   100.0   100.0   0   0   1   -60.0001403060998   60.0001403060998
    108 109 0.02886315900021004 0.015182734719596724    0.0 100.0   100.0   100.0   0   0   1   -60.0001403060998   60.0001403060998
    109 110 0.02836536441923965 0.014920709934887628    0.0 100.0   100.0   100.0   0   0   1   -60.0001403060998   60.0001403060998
    108 111 0.0023892039487502623   0.003103864734299517    0.0 100.0   100.0   100.0   0   0   1   -60.0001403060998   60.0001403060998
    111 112 0.024881852551984877    0.01308863684099979 0.0 100.0   100.0   100.0   0   0   1   -60.0001403060998   60.0001403060998
    112 113 0.045285129174543165    0.023820625918924594    0.0 100.0   100.0   100.0   0   0   1   -60.0001403060998   60.0001403060998
    113 114 0.029858223062381853    0.015706259189245956    0.0 100.0   100.0   100.0   0   0   1   -60.0001403060998   60.0001403060998
    109 115 0.04080602814534761 0.021465028355387522    0.0 100.0   100.0   100.0   0   0   1   -60.0001403060998   60.0001403060998
    115 116 0.0567307288384793  0.029841419869775256    0.0 100.0   100.0   100.0   0   0   1   -60.0001403060998   60.0001403060998
    110 117 0.05772579290065112 0.030364944339424486    0.0 100.0   100.0   100.0   0   0   1   -60.0001403060998   60.0001403060998
    117 118 0.024881852551984877    0.01308863684099979 0.0 100.0   100.0   100.0   0   0   1   -60.0001403060998   60.0001403060998
    105 119 0.016943394244906533    0.0391136315900021  0.0 100.0   100.0   100.0   0   0   1   -60.0001403060998   60.0001403060998
    119 120 0.007683784919134635    0.017737345095568156    0.0 100.0   100.0   100.0   0   0   1   -60.0001403060998   60.0001403060998
    120 121 0.00650178533921445 0.015008926696072252    0.0 100.0   100.0   100.0   0   0   1   -60.0001403060998   60.0001403060998
    1   122 0.0005912623398445704   0.001364209199747952    0.0 100.0   100.0   100.0   0   0   1   -60.0001403060998   60.0001403060998
    122 123 0.03408422600294056 0.07868199957992018 0.0 100.0   100.0   100.0   0   0   1   -60.0001403060998   60.0001403060998
    123 124 0.0023639991598403695   0.005457886998529721    0.0 100.0   100.0   100.0   0   0   1   -60.0001403060998   60.0001403060998
    124 125 0.027641251837849188    0.009481201428271371    0.0 100.0   100.0   100.0   0   0   1   -60.0001403060998   60.0001403060998
    124 126 0.0010838059231253938   0.002501575299306868    0.0 100.0   100.0   100.0   0   0   1   -60.0001403060998   60.0001403060998
    126 127 0.02786756983826927 0.014659210249947489    0.0 100.0   100.0   100.0   0   0   1   -60.0001403060998   60.0001403060998
    126 128 0.0051223482461667715   0.01182524679689141 0.0 100.0   100.0   100.0   0   0   1   -60.0001403060998   60.0001403060998
    128 129 0.0062061541692921655   0.014326296996429322    0.0 100.0   100.0   100.0   0   0   1   -60.0001403060998   60.0001403060998
    128 130 0.007289434992648603    0.01682787229573619 0.0 100.0   100.0   100.0   0   0   1   -60.0001403060998   60.0001403060998
    130 131 0.002265805503045579    0.005230518798571729    0.0 100.0   100.0   100.0   0   0   1   -60.0001403060998   60.0001403060998
    131 132 0.004826717076244487    0.011142617097248477    0.0 100.0   100.0   100.0   0   0   1   -60.0001403060998   60.0001403060998
    132 133 0.008471959672337744    0.01955681579500105 0.0 100.0   100.0   100.0   0   0   1   -60.0001403060998   60.0001403060998
    133 134 0.019865574459147238    0.01983564377231674 0.0 100.0   100.0   100.0   0   0   1   -60.0001403060998   60.0001403060998
    134 135 0.02085906322201218 0.020827557235874816    0.0 100.0   100.0   100.0   0   0   1   -60.0001403060998   60.0001403060998
    135 136 0.015395925225792901    0.015372820835958832    0.0 100.0   100.0   100.0   0   0   1   -60.0001403060998   60.0001403060998
    8   74  0.006895610165931526    0.01591839949590422 0.0 100.0   100.0   100.0   0   0   0   -60.0001403060998   60.0001403060998
    10  25  0.013934047469019113    0.007329342575089267    0.0 100.0   100.0   100.0   0   0   0   -60.0001403060998   60.0001403060998
    16  84  0.007449590422180214    0.007438563327032136    0.0 100.0   100.0   100.0   0   0   0   -60.0001403060998   60.0001403060998
    39  136 0.004469649233354338    0.004462822936357908    0.0 100.0   100.0   100.0   0   0   0   -60.0001403060998   60.0001403060998
    26  52  0.0023639991598403695   0.005457886998529721    0.0 100.0   100.0   100.0   0   0   0   -60.0001403060998   60.0001403060998
    51  97  0.007449590422180214    0.007438563327032136    0.0 100.0   100.0   100.0   0   0   0   -60.0001403060998   60.0001403060998
    56  99  0.007449590422180214    0.007438563327032136    0.0 100.0   100.0   100.0   0   0   0   -60.0001403060998   60.0001403060998
    63  121 0.0020688930896870404   0.004775257298886788    0.0 100.0   100.0   100.0   0   0   0   -60.0001403060998   60.0001403060998
    67  80  0.0067968914093677795   0.015691031295946227    0.0 100.0   100.0   100.0   0   0   0   -60.0001403060998   60.0001403060998
    80  132 0.0008863684099978996   0.0020468388993908843   0.0 100.0   100.0   100.0   0   0   0   -60.0001403060998   60.0001403060998
    85  136 0.01741755933627389 0.009161940768746062    0.0 100.0   100.0   100.0   0   0   0   -60.0001403060998   60.0001403060998
    92  105 0.007449590422180214    0.007438563327032136    0.0 100.0   100.0   100.0   0   0   0   -60.0001403060998   60.0001403060998
    91  130 0.004039067422810334    0.00932367149758454 0.0 100.0   100.0   100.0   0   0   0   -60.0001403060998   60.0001403060998
    91  104 0.004039067422810334    0.00932367149758454 0.0 100.0   100.0   100.0   0   0   0   -60.0001403060998   60.0001403060998
    93  105 0.004039067422810334    0.00932367149758454 0.0 100.0   100.0   100.0   0   0   0   -60.0001403060998   60.0001403060998
    93  133 0.004039067422810334    0.00932367149758454 0.0 100.0   100.0   100.0   0   0   0   -60.0001403060998   60.0001403060998
    97  121 0.013905692081495483    0.013885213190506196    0.0 100.0   100.0   100.0   0   0   0   -60.0001403060998   60.0001403060998
    111 48  0.02609535811804243 0.03390411678218861 0.0 100.0   100.0   100.0   0   0   0   -60.0001403060998   60.0001403060998
    127 77  0.008957676958622138    0.004711720226843101    0.0 100.0   100.0   100.0   0   0   0   -60.0001403060998   60.0001403060998
    129 78  0.002758349086326402    0.006367359798361689    0.0 100.0   100.0   100.0   0   0   0   -60.0001403060998   60.0001403060998
    136 99  0.015395925225792901    0.015372820835958832    0.0 100.0   100.0   100.0   0   0   0   -60.0001403060998   60.0001403060998
];

%%-----  OPF Data  -----%%
%% cost data
%    1    startup    shutdown    n    x1    y1    ...    xn    yn
%    2    startup    shutdown    n    c(n-1)    ...    c0
mpc.gencost = [
    2   0.0 0.0 2   20.0    0.0
];
